Version 4
SHEET 1 880 680
WIRE -320 -1184 -336 -1184
WIRE -176 -1184 -240 -1184
WIRE -96 -1184 -176 -1184
WIRE 144 -1184 -16 -1184
WIRE 320 -1184 288 -1184
WIRE -176 -1104 -176 -1184
WIRE -336 -1088 -336 -1104
WIRE 144 -1040 144 -1104
WIRE 320 -1040 144 -1040
WIRE 336 -1040 320 -1040
WIRE 496 -1040 480 -1040
WIRE 512 -1040 496 -1040
WIRE -176 -1008 -176 -1024
WIRE 144 -976 144 -1040
WIRE 288 -976 288 -1104
FLAG -336 -1008 0
FLAG 320 -1104 0
FLAG 144 -896 0
FLAG 288 -896 0
FLAG 320 -1040 in
FLAG 496 -1040 out
FLAG 336 -960 0
FLAG 480 -960 0
FLAG -176 -1008 0
SYMBOL SLV -336 -1088 M0
SYMATTR InstName V1
SYMBOL SLR -336 -1184 M0
SYMATTR InstName R1
SYMATTR Value value={R_s}
SYMATTR Value2 noisetemp={T}
SYMBOL SLI 320 -1184 R0
WINDOW 39 41 57 Left 2
WINDOW 40 41 73 Left 2
SYMATTR SpiceLine2 noise={4*k*T*n*Gamma*g_m}
SYMATTR InstName I1
SYMBOL SLH 208 -1200 M0
WINDOW 0 1 -28 Right 2
WINDOW 3 2 -16 Right 2
SYMATTR InstName H1
SYMATTR Value {1/g_m}
SYMBOL SLF 208 -992 M0
WINDOW 0 23 -27 Right 2
WINDOW 3 25 -14 Right 2
SYMATTR InstName F1
SYMATTR Value {s/(2*pi*f_T)}
SYMBOL SLV -16 -1184 R90
WINDOW 0 -24 40 VBottom 2
WINDOW 3 25 131 VLeft 2
WINDOW 123 49 133 VLeft 2
WINDOW 39 61 133 VLeft 2
WINDOW 40 37 132 VLeft 2
SYMATTR InstName V2
SYMATTR SpiceLine2 noise={4*k*T*n*Gamma*f_ell^AF/g_m/f}
SYMBOL SLL -240 -1184 R270
WINDOW 0 8 -40 VTop 2
WINDOW 3 -10 -61 VRight 2
WINDOW 123 -23 -61 VRight 2
SYMATTR InstName L1
SYMATTR Value value={L_s}
SYMBOL SLE 416 -1056 R0
SYMATTR InstName E1
SYMATTR Value {1/(s*tau_i)}
SYMBOL SLR -176 -1104 R0
SYMATTR InstName R2
SYMATTR Value value={R_t}
SYMATTR Value2 noisetemp={T}
TEXT -384 -928 Left 2 !.param f_ell={alpha*f_T^(1/AF)} f_T={g_m/(2*pi*c_iss)}
TEXT -384 -944 Left 2 !.param n=1.35 Gamma={2/3} AF=1 alpha=0.0033
TEXT -384 -912 Left 2 !.param L_s = 120m R_s=875 tau_i=15.9u
TEXT -384 -896 Left 2 !.param R_t=10k
TEXT -456 -976 Left 2 ;Rceive coil (resonance  not modeled > 150 kHz)
TEXT -64 -864 Left 2 ;Shot noise associated with the DC gate current is not modeled (IG = 0)
TEXT 296 -1208 Left 2 ;Channel current noise
TEXT -120 -1232 Left 2 ;Input-referred flicker noise
TEXT 104 -952 Left 2 ;Gate-\ninduced\nnoise
TEXT 104 -1168 Left 2 ;Input-\nreferred\nchannel\nvoltage\nnoise
TEXT 336 -928 Left 2 ;Integrating voltage amplifier
TEXT -160 -1016 Left 2 ;Termination resistor
