Version 4
SHEET 1 880 680
WIRE -64 -1184 -176 -1184
WIRE 144 -1184 16 -1184
WIRE 320 -1184 288 -1184
WIRE -176 -1088 -176 -1104
WIRE 144 -1040 144 -1104
WIRE 224 -1040 144 -1040
WIRE 240 -1040 224 -1040
WIRE 144 -976 144 -1040
WIRE 288 -976 288 -1104
FLAG -176 -1008 0
FLAG 320 -1104 0
FLAG 144 -896 0
FLAG 288 -896 0
FLAG 224 -1040 out
SYMBOL SLV -176 -1088 M0
SYMATTR InstName V1
SYMBOL SLR -176 -1184 M0
SYMATTR InstName R1
SYMATTR Value value={R_s}
SYMATTR Value2 noisetemp={T}
SYMBOL SLI 320 -1184 R0
WINDOW 39 41 57 Left 2
WINDOW 40 41 73 Left 2
SYMATTR SpiceLine2 noise={4*k*T*n*Gamma*g_m}
SYMATTR InstName I1
SYMBOL SLH 208 -1200 M0
WINDOW 0 1 -28 Right 2
WINDOW 3 2 -16 Right 2
SYMATTR InstName H1
SYMATTR Value {1/g_m}
SYMBOL SLF 208 -992 M0
WINDOW 0 23 -27 Right 2
WINDOW 3 25 -14 Right 2
SYMATTR InstName F1
SYMATTR Value {s/(2*pi*f_T)}
SYMBOL SLV 16 -1184 R90
WINDOW 0 -24 40 VBottom 2
WINDOW 3 25 131 VLeft 2
WINDOW 123 49 133 VLeft 2
WINDOW 39 61 133 VLeft 2
WINDOW 40 37 132 VLeft 2
SYMATTR InstName V2
SYMATTR SpiceLine2 noise={4*k*T*n*Gamma*f_ell/g_m/f}
TEXT -128 -1056 Left 2 !.param f_ell={alpha*f_T} f_T={g_m/(2*pi*c_iss)}
TEXT -128 -1072 Left 2 !.param n=1.35 Gamma={2/3} alpha=0.0033
TEXT 56 -1248 Left 2 ;Shot noise associated with the DC gate current is not modeled (IG = 0)
TEXT 296 -1208 Left 2 ;Channel current noise
TEXT -88 -1248 Left 2 ;Input-referred flicker noise
TEXT 104 -952 Left 2 ;Gate-\ninduced\nnoise
TEXT 104 -1168 Left 2 ;Input-\nreferred\nchannel\nvoltage\nnoise
