Version 4
SHEET 1 880 680
WIRE 144 96 112 96
WIRE 240 96 224 96
WIRE 256 96 240 96
FLAG 176 176 0
FLAG 240 96 out
FLAG 112 256 0
SYMBOL SLM_noise 224 80 R0
SYMATTR InstName U1
SYMATTR SpiceModel NM18_noise
SYMBOL SLR 112 96 M0
SYMATTR InstName R1
SYMATTR Value value={R_s}
SYMATTR Value2 noisetemp={T}
SYMBOL SLV 112 176 M0
SYMATTR InstName V1
TEXT 168 216 Left 2 !.lib CMOS18-1.lib
